14
Butane
C     -0.4229   0.6367  0.0000
C     0.4229    -0.6367 0.0000
C     0.4229    1.9102  0.0000
C     -0.4229   -1.9102 0.0000
H     -1.0790   0.6294  0.8795
H     -1.0790   0.6294  -0.8795
H     1.0790    -0.6294 0.8795
H     1.0790    -0.6294 -0.8795
H     -0.2029   2.8075  0.0000
H       1.0666  1.9466  0.8848
H       1.0666  1.9466  -0.8848
H       0.2029  -2.8075 0.0000
H       -1.0666 -1.9466 0.8848
H       -1.0666 -1.9466 -0.8848
